6
Coordinates from ORCA-job PCl5_ts_opt E -2641.412565747086
  P       0.000000      0.000000      0.000000
  Cl      0.000000      2.020000      0.000000
  Cl      2.009100     -0.402600      0.000000
  Cl     -2.009100     -0.402600      0.000000
  Cl      0.000000     -0.402600      2.009100
  Cl      0.000000     -0.402600     -2.009100
6
Coordinates from ORCA-job PCl5_ts_opt E -2641.417467942396
  P       0.000000      0.020818     -0.000000
  Cl     -0.000000      2.045491     -0.000000
  Cl      2.055253     -0.414177      0.000000
  Cl     -2.055253     -0.414177      0.000000
  Cl      0.000000     -0.414177      2.055253
  Cl     -0.000000     -0.414177     -2.055253
6
Coordinates from ORCA-job PCl5_ts_opt E -2641.417593768380
  P       0.000000      0.022204      0.000000
  Cl      0.000000      2.046528      0.000000
  Cl      2.064005     -0.414783      0.000000
  Cl     -2.064005     -0.414783      0.000000
  Cl     -0.000000     -0.414783      2.064005
  Cl     -0.000000     -0.414783     -2.064005
6
Coordinates from ORCA-job PCl5_ts_opt E -2641.417596300668
  P       0.000000      0.022831      0.000000
  Cl     -0.000000      2.046822     -0.000000
  Cl      2.065310     -0.415013      0.000000
  Cl     -2.065310     -0.415013      0.000000
  Cl     -0.000000     -0.415013      2.065310
  Cl      0.000000     -0.415013     -2.065310
6
Coordinates from ORCA-job PCl5_ts_opt E -2641.417596304138
  P      -0.000000      0.022811     -0.000000
  Cl     -0.000000      2.046810     -0.000000
  Cl      2.065348     -0.415005      0.000000
  Cl     -2.065348     -0.415005      0.000000
  Cl      0.000000     -0.415005      2.065348
  Cl     -0.000000     -0.415005     -2.065348
