6
Coordinates from ORCA-job AsF5_opt E -2734.594827112578
  As      0.000000      0.000000      0.000000
  F       0.000000      1.719000      0.000000
  F       1.488700     -0.859500      0.000000
  F      -1.488700     -0.859500      0.000000
  F       0.000000      0.000000      1.668000
  F       0.000000      0.000000     -1.668000
6
Coordinates from ORCA-job AsF5_opt E -2734.597530329909
  As     -0.000000     -0.000006      0.000000
  F      -0.000000      1.717892     -0.000000
  F       1.487781     -0.858902     -0.000000
  F      -1.487781     -0.858902     -0.000000
  F       0.000000     -0.000041      1.690849
  F       0.000000     -0.000041     -1.690849
6
Coordinates from ORCA-job AsF5_opt E -2734.599200377079
  As      0.000000     -0.000030      0.000000
  F       0.000000      1.714162     -0.000000
  F       1.484645     -0.856958      0.000000
  F      -1.484645     -0.856958     -0.000000
  F      -0.000000     -0.000109      1.724015
  F      -0.000000     -0.000109     -1.724015
6
Coordinates from ORCA-job AsF5_opt E -2734.599253293552
  As     -0.000000     -0.000042     -0.000000
  F       0.000000      1.712355     -0.000000
  F       1.483117     -0.856023      0.000000
  F      -1.483117     -0.856023     -0.000000
  F       0.000000     -0.000134      1.729956
  F      -0.000000     -0.000134     -1.729956
6
Coordinates from ORCA-job AsF5_opt E -2734.599256899586
  As     -0.000000     -0.000049     -0.000000
  F       0.000000      1.711439     -0.000000
  F       1.482344     -0.855544      0.000000
  F      -1.482344     -0.855544     -0.000000
  F       0.000000     -0.000151      1.730833
  F      -0.000000     -0.000151     -1.730833
6
Coordinates from ORCA-job AsF5_opt E -2734.599257857604
  As     -0.000000     -0.000055     -0.000000
  F       0.000000      1.710807     -0.000000
  F       1.481818     -0.855206      0.000000
  F      -1.481818     -0.855206      0.000000
  F       0.000000     -0.000170      1.730818
  F      -0.000000     -0.000170     -1.730818
