6
Coordinates from ORCA-job SbCl5_opt E -2540.506895450984
  Sb      0.000000      0.000000      0.000000
  Cl      0.000000      2.277000      0.000000
  Cl      1.971900     -1.138500      0.000000
  Cl     -1.971900     -1.138500      0.000000
  Cl      0.000000      0.000000      2.338000
  Cl      0.000000      0.000000     -2.338000
6
Coordinates from ORCA-job SbCl5_opt E -2540.510243561558
  Sb     -0.000000     -0.000008     -0.000000
  Cl     -0.000000      2.313961      0.000000
  Cl      2.003924     -1.157042      0.000000
  Cl     -2.003924     -1.157042      0.000000
  Cl      0.000000      0.000065      2.366477
  Cl      0.000000      0.000065     -2.366477
6
Coordinates from ORCA-job SbCl5_opt E -2540.510686025181
  Sb      0.000000      0.000037     -0.000000
  Cl     -0.000000      2.332955      0.000000
  Cl      2.020164     -1.166636     -0.000000
  Cl     -2.020164     -1.166636      0.000000
  Cl     -0.000000      0.000140      2.376175
  Cl     -0.000000      0.000140     -2.376175
6
Coordinates from ORCA-job SbCl5_opt E -2540.510698878140
  Sb      0.000000      0.000068     -0.000000
  Cl     -0.000000      2.336579      0.000000
  Cl      2.023120     -1.168563      0.000000
  Cl     -2.023120     -1.168563     -0.000000
  Cl      0.000000      0.000239      2.375902
  Cl     -0.000000      0.000239     -2.375903
6
Coordinates from ORCA-job SbCl5_opt E -2540.510700114481
  Sb     -0.000000      0.000096     -0.000000
  Cl      0.000000      2.337390      0.000000
  Cl      2.023657     -1.169096     -0.000000
  Cl     -2.023657     -1.169096      0.000000
  Cl      0.000000      0.000352      2.374934
  Cl      0.000000      0.000352     -2.374934
6
Coordinates from ORCA-job SbCl5_opt E -2540.510700292376
  Sb     -0.000000      0.000127      0.000000
  Cl     -0.000000      2.337519     -0.000000
  Cl      2.023604     -1.169297      0.000000
  Cl     -2.023604     -1.169297      0.000000
  Cl      0.000000      0.000474      2.374368
  Cl      0.000000      0.000474     -2.374368
