! PBE def2-TZVP Opt

* xyz 0 1
P  0.0000  0.0000  0.0000  # Phosphorus (P)
Cl  0.0000  2.0200  0.0000  # Equatorial Chlorine (Cl1) 
Cl  1.7494 -1.0100  0.0000  # Equatorial Chlorine (Cl2)
Cl -1.7494 -1.0100  0.0000  # Equatorial Chlorine (Cl3)
Cl  0.0000  0.0000  2.1400  # Axial Chlorine (Cl4)
Cl  0.0000  0.0000 -2.1400  # Axial Chlorine (Cl5)
*
