! PBE def2-TZVP Opt

* xyz 0 1
As  0.0000  0.0000  0.0000  # Arsenic (P)
Cl  0.0000  2.1060  0.0000  # Equatorial Chlorine (Cl1)
Cl  1.8328 -1.0530  0.0000  # Equatorial Chlorine (Cl2)
Cl -1.8328 -1.0530  0.0000  # Equatorial Chlorine (Cl3)
Cl  0.0000  0.0000  2.2070  # Axial Chlorine (Cl4)
Cl  0.0000  0.0000 -2.2070  # Axial Chlorine (Cl5)
*
