6
Coordinates from ORCA-job SbCl5_ts_opt E -2540.502075128474
  Sb      0.000000      0.000000      0.000000
  Cl      0.000000      2.277000      0.000000
  Cl      2.228900     -0.597200      0.000000
  Cl     -2.228900     -0.597200      0.000000
  Cl      0.000000     -0.597200      2.228900
  Cl      0.000000     -0.597200     -2.228900
6
Coordinates from ORCA-job SbCl5_ts_opt E -2540.507777750528
  Sb     -0.000000     -0.074771     -0.000000
  Cl     -0.000000      2.234083     -0.000000
  Cl      2.300345     -0.567778      0.000000
  Cl     -2.300345     -0.567778     -0.000000
  Cl      0.000000     -0.567778      2.300345
  Cl     -0.000000     -0.567778     -2.300345
6
Coordinates from ORCA-job SbCl5_ts_opt E -2540.507924883539
  Sb      0.000000     -0.071642     -0.000000
  Cl     -0.000000      2.241180      0.000000
  Cl      2.310025     -0.570334     -0.000000
  Cl     -2.310025     -0.570334      0.000000
  Cl     -0.000000     -0.570334      2.310025
  Cl      0.000000     -0.570334     -2.310025
6
Coordinates from ORCA-job SbCl5_ts_opt E -2540.507927210964
  Sb      0.000000     -0.072673     -0.000000
  Cl     -0.000000      2.240105      0.000000
  Cl      2.311690     -0.569808      0.000000
  Cl     -2.311690     -0.569808     -0.000000
  Cl      0.000000     -0.569808      2.311690
  Cl     -0.000000     -0.569808     -2.311690
6
Coordinates from ORCA-job SbCl5_ts_opt E -2540.507927232073
  Sb      0.000000     -0.072745      0.000000
  Cl     -0.000000      2.239955     -0.000000
  Cl      2.311771     -0.569753      0.000000
  Cl     -2.311771     -0.569753      0.000000
  Cl      0.000000     -0.569753      2.311771
  Cl      0.000000     -0.569753     -2.311771
