6
Coordinates from ORCA-job PF5_ts_opt E -840.340736028926
  P       0.000000      0.000000      0.000000
  F       0.000000      1.534000      0.000000
  F       1.481700     -0.402600      0.000000
  F      -1.481700     -0.402600      0.000000
  F       0.000000     -0.402600      1.523200
  F       0.000000     -0.402600     -1.523200
6
Coordinates from ORCA-job PF5_ts_opt E -840.349049254012
  P      -0.000000     -0.043628      0.000000
  F       0.000000      1.503182     -0.000000
  F       1.540558     -0.392818      0.000000
  F      -1.540558     -0.392818     -0.000000
  F       0.000000     -0.375159      1.553382
  F      -0.000000     -0.375159     -1.553382
6
Coordinates from ORCA-job PF5_ts_opt E -840.349224034824
  P       0.000001     -0.044097      0.000000
  F       0.000000      1.503569      0.000000
  F       1.550906     -0.389138     -0.000000
  F      -1.550905     -0.389138     -0.000000
  F      -0.000001     -0.378798      1.556030
  F      -0.000001     -0.378798     -1.556030
6
Coordinates from ORCA-job PF5_ts_opt E -840.349228200199
  P       0.000000     -0.044018      0.000000
  F      -0.000000      1.503398     -0.000000
  F       1.553650     -0.386576     -0.000000
  F      -1.553650     -0.386576     -0.000000
  F      -0.000000     -0.381314      1.555421
  F      -0.000000     -0.381314     -1.555421
6
Coordinates from ORCA-job PF5_ts_opt E -840.349227945937
  P       0.000000     -0.043956      0.000000
  F      -0.000000      1.503423      0.000000
  F       1.554077     -0.385519     -0.000000
  F      -1.554077     -0.385519     -0.000000
  F      -0.000000     -0.382414      1.555033
  F      -0.000000     -0.382414     -1.555033
