6
Coordinates from ORCA-job PF5_opt E -840.351358240767
  P       0.000000      0.000000      0.000000
  F       0.000000      1.534000      0.000000
  F       1.328500     -0.767000      0.000000
  F      -1.328500     -0.767000      0.000000
  F       0.000000      0.000000      1.577000
  F       0.000000      0.000000     -1.577000
6
Coordinates from ORCA-job PF5_opt E -840.353736644549
  P       0.000000      0.000071     -0.000000
  F      -0.000000      1.547962      0.000000
  F       1.340369     -0.774157      0.000000
  F      -1.340369     -0.774157     -0.000000
  F       0.000000      0.000140      1.589694
  F       0.000000      0.000140     -1.589694
6
Coordinates from ORCA-job PF5_opt E -840.354670703107
  P       0.000000      0.000146     -0.000000
  F      -0.000000      1.563273     -0.000000
  F       1.353316     -0.782135      0.000000
  F      -1.353316     -0.782135      0.000000
  F      -0.000000      0.000426      1.602389
  F       0.000000      0.000426     -1.602389
6
Coordinates from ORCA-job PF5_opt E -840.354681577005
  P       0.000000      0.000172     -0.000000
  F       0.000000      1.565123     -0.000000
  F       1.354795     -0.783176      0.000000
  F      -1.354795     -0.783176      0.000000
  F      -0.000000      0.000528      1.603035
  F      -0.000000      0.000528     -1.603035
6
Coordinates from ORCA-job PF5_opt E -840.354683428689
  P       0.000000      0.000195     -0.000000
  F       0.000000      1.565703      0.000000
  F       1.355181     -0.783568     -0.000000
  F      -1.355181     -0.783568     -0.000000
  F      -0.000000      0.000619      1.602659
  F      -0.000000      0.000619     -1.602659
6
Coordinates from ORCA-job PF5_opt E -840.354684572088
  P       0.000000      0.000232      0.000000
  F       0.000000      1.566164     -0.000000
  F       1.355388     -0.783967      0.000000
  F      -1.355388     -0.783967     -0.000000
  F      -0.000000      0.000769      1.601871
  F      -0.000000      0.000769     -1.601871
6
Coordinates from ORCA-job PF5_opt E -840.354684657210
  P      -0.000000      0.000246     -0.000000
  F       0.000000      1.566157      0.000000
  F       1.355301     -0.784033      0.000000
  F      -1.355301     -0.784033     -0.000000
  F      -0.000000      0.000831      1.601660
  F      -0.000000      0.000831     -1.601660
