6
Coordinates from ORCA-job PF5_ts_scan E -840.351358240935
  P      -0.000000     -0.000000      0.000000
  F      -0.000000      1.534000      0.000000
  F       1.328500     -0.767000      0.000000
  F      -1.328500     -0.767000     -0.000000
  F       0.000000     -0.000000      1.577000
  F      -0.000000     -0.000000     -1.577000
6
Coordinates from ORCA-job PF5_ts_scan E -840.353216511799
  P       0.000000      0.002387     -0.000000
  F      -0.000000      1.536387      0.000000
  F       1.340377     -0.771845     -0.000000
  F      -1.340377     -0.771845     -0.000000
  F       0.000000      0.002457      1.589704
  F       0.000000      0.002457     -1.589704
6
Coordinates from ORCA-job PF5_ts_scan E -840.354023880536
  P       0.000000      0.008341     -0.000000
  F      -0.000000      1.542341     -0.000000
  F       1.353836     -0.774675      0.000000
  F      -1.353836     -0.774675      0.000000
  F       0.000000     -0.000667      1.603977
  F       0.000000     -0.000667     -1.603977
6
Coordinates from ORCA-job PF5_ts_scan E -840.354033297786
  P       0.000000      0.008949     -0.000000
  F      -0.000000      1.542949     -0.000000
  F       1.355849     -0.774282      0.000000
  F      -1.355849     -0.774282     -0.000000
  F       0.000000     -0.001668      1.605036
  F       0.000000     -0.001668     -1.605036
6
Coordinates from ORCA-job PF5_ts_scan E -840.354035585906
  P      -0.000000      0.008985     -0.000000
  F      -0.000000      1.542985      0.000000
  F       1.356961     -0.773531      0.000000
  F      -1.356961     -0.773531      0.000000
  F       0.000000     -0.002455      1.604963
  F       0.000000     -0.002455     -1.604963
6
Coordinates from ORCA-job PF5_ts_scan E -840.354039211075
  P       0.000000      0.008738     -0.000000
  F      -0.000000      1.542738      0.000000
  F       1.359518     -0.771193     -0.000000
  F      -1.359518     -0.771193     -0.000000
  F       0.000000     -0.004545      1.604301
  F       0.000000     -0.004545     -1.604301
6
Coordinates from ORCA-job PF5_ts_scan E -840.354040508407
  P      -0.000000      0.008387     -0.000000
  F      -0.000000      1.542387      0.000000
  F       1.360713     -0.769643     -0.000000
  F      -1.360713     -0.769643     -0.000000
  F       0.000000     -0.005744      1.603839
  F       0.000000     -0.005744     -1.603839
6
Coordinates from ORCA-job PF5_ts_scan E -840.354041247976
  P       0.000000      0.008006     -0.000000
  F      -0.000000      1.542006      0.000000
  F       1.361405     -0.768376      0.000000
  F      -1.361405     -0.768376      0.000000
  F       0.000000     -0.006630      1.603645
  F       0.000000     -0.006630     -1.603645
6
Coordinates from ORCA-job PF5_ts_scan E -840.354041616113
  P       0.000000      0.007745     -0.000000
  F      -0.000000      1.541745     -0.000000
  F       1.361728     -0.767588      0.000000
  F      -1.361728     -0.767588      0.000000
  F       0.000000     -0.007156      1.603761
  F       0.000000     -0.007156     -1.603761
6
Coordinates from ORCA-job PF5_ts_scan E -840.354041757637
  P       0.000000      0.007636     -0.000000
  F      -0.000000      1.541636     -0.000000
  F       1.361830     -0.767262      0.000000
  F      -1.361830     -0.767262      0.000000
  F       0.000000     -0.007374      1.604004
  F       0.000000     -0.007374     -1.604004
6
Coordinates from ORCA-job PF5_ts_scan E -840.354223564039
  P       0.000000      0.006840     -0.000000
  F      -0.000000      1.545618     -0.000000
  F       1.361830     -0.768058      0.000000
  F      -1.361830     -0.768058      0.000000
  F       0.000000     -0.008171      1.604004
  F       0.000000     -0.008171     -1.604004
6
Coordinates from ORCA-job PF5_ts_scan E -840.354224383893
  P       0.000000      0.006343     -0.000000
  F      -0.000000      1.545121      0.000000
  F       1.361855     -0.768509      0.000000
  F      -1.361855     -0.768509      0.000000
  F       0.000000     -0.007223      1.603903
  F       0.000000     -0.007223     -1.603903
6
Coordinates from ORCA-job PF5_ts_scan E -840.354373196044
  P       0.000000      0.005547     -0.000000
  F      -0.000000      1.549103      0.000000
  F       1.361855     -0.769305      0.000000
  F      -1.361855     -0.769305      0.000000
  F       0.000000     -0.008020      1.603903
  F       0.000000     -0.008020     -1.603903
6
Coordinates from ORCA-job PF5_ts_scan E -840.354374527443
  P       0.000000      0.005013     -0.000000
  F      -0.000000      1.548568      0.000000
  F       1.361760     -0.769896      0.000000
  F      -1.361760     -0.769896      0.000000
  F       0.000000     -0.006895      1.603684
  F       0.000000     -0.006895     -1.603684
6
Coordinates from ORCA-job PF5_ts_scan E -840.354491614320
  P       0.000000      0.004216     -0.000000
  F      -0.000000      1.552550      0.000000
  F       1.361760     -0.770692      0.000000
  F      -1.361760     -0.770692      0.000000
  F       0.000000     -0.007691      1.603684
  F       0.000000     -0.007691     -1.603684
6
Coordinates from ORCA-job PF5_ts_scan E -840.354493364042
  P      -0.000000      0.003691     -0.000000
  F      -0.000000      1.552025      0.000000
  F       1.361560     -0.771393      0.000000
  F      -1.361560     -0.771393      0.000000
  F       0.000000     -0.006465      1.603397
  F       0.000000     -0.006465     -1.603397
6
Coordinates from ORCA-job PF5_ts_scan E -840.354494156809
  P       0.000000      0.003556     -0.000000
  F      -0.000000      1.551890     -0.000000
  F       1.361051     -0.772104      0.000000
  F      -1.361051     -0.772104      0.000000
  F       0.000000     -0.005619      1.603061
  F       0.000000     -0.005619     -1.603061
6
Coordinates from ORCA-job PF5_ts_scan E -840.354581779332
  P       0.000000      0.002760     -0.000000
  F      -0.000000      1.555871     -0.000000
  F       1.361051     -0.772900      0.000000
  F      -1.361051     -0.772900      0.000000
  F       0.000000     -0.006415      1.603061
  F       0.000000     -0.006415     -1.603061
6
Coordinates from ORCA-job PF5_ts_scan E -840.354582863273
  P       0.000000      0.002456     -0.000000
  F      -0.000000      1.555567     -0.000000
  F       1.360799     -0.773543      0.000000
  F      -1.360799     -0.773543      0.000000
  F       0.000000     -0.005468      1.602877
  F       0.000000     -0.005468     -1.602877
6
Coordinates from ORCA-job PF5_ts_scan E -840.354640164280
  P       0.000000      0.001660     -0.000000
  F      -0.000000      1.559549     -0.000000
  F       1.360799     -0.774340      0.000000
  F      -1.360799     -0.774340      0.000000
  F       0.000000     -0.006265      1.602877
  F       0.000000     -0.006265     -1.602877
6
Coordinates from ORCA-job PF5_ts_scan E -840.354642165258
  P       0.000000      0.001191     -0.000000
  F      -0.000000      1.559079     -0.000000
  F       1.360499     -0.775185      0.000000
  F      -1.360499     -0.775185      0.000000
  F       0.000000     -0.004950      1.602613
  F       0.000000     -0.004950     -1.602613
6
Coordinates from ORCA-job PF5_ts_scan E -840.354643596604
  P       0.000000      0.001050      0.000000
  F      -0.000000      1.558939     -0.000000
  F       1.359687     -0.776394     -0.000000
  F      -1.359687     -0.776394      0.000000
  F       0.000000     -0.003600      1.602228
  F       0.000000     -0.003600     -1.602228
6
Coordinates from ORCA-job PF5_ts_scan E -840.354644713172
  P       0.000000      0.001280      0.000000
  F      -0.000000      1.559169     -0.000000
  F       1.358580     -0.777749      0.000000
  F      -1.358580     -0.777749     -0.000000
  F       0.000000     -0.002475      1.601927
  F       0.000000     -0.002475     -1.601927
6
Coordinates from ORCA-job PF5_ts_scan E -840.354645573374
  P       0.000000      0.001773      0.000000
  F      -0.000000      1.559662     -0.000000
  F       1.357296     -0.779274     -0.000000
  F      -1.357296     -0.779274     -0.000000
  F       0.000000     -0.001444      1.601823
  F       0.000000     -0.001444     -1.601823
6
Coordinates from ORCA-job PF5_ts_scan E -840.354645915734
  P       0.000000      0.002118      0.000000
  F      -0.000000      1.560007     -0.000000
  F       1.356691     -0.780034      0.000000
  F      -1.356691     -0.780034     -0.000000
  F       0.000000     -0.001028      1.601986
  F      -0.000000     -0.001028     -1.601986
6
Coordinates from ORCA-job PF5_ts_scan E -840.354646029249
  P       0.000000      0.002237      0.000000
  F      -0.000000      1.560126     -0.000000
  F       1.356560     -0.780267     -0.000000
  F      -1.356560     -0.780267     -0.000000
  F      -0.000000     -0.000915      1.602192
  F      -0.000000     -0.000915     -1.602192
6
Coordinates from ORCA-job PF5_ts_scan E -840.354677170294
  P       0.000000      0.001441      0.000000
  F      -0.000000      1.564107     -0.000000
  F       1.356560     -0.781063     -0.000000
  F      -1.356560     -0.781063     -0.000000
  F      -0.000000     -0.001711      1.602192
  F      -0.000000     -0.001711     -1.602192
6
Coordinates from ORCA-job PF5_ts_scan E -840.354678120646
  P       0.000000      0.000900      0.000000
  F      -0.000000      1.563567     -0.000000
  F       1.356589     -0.781535      0.000000
  F      -1.356589     -0.781535     -0.000000
  F      -0.000000     -0.000699      1.602071
  F      -0.000000     -0.000699     -1.602071
6
Coordinates from ORCA-job PF5_ts_scan E -840.354680937874
  P       0.000000      0.000104      0.000000
  F      -0.000000      1.567548     -0.000000
  F       1.356589     -0.782331      0.000000
  F      -1.356589     -0.782331     -0.000000
  F      -0.000000     -0.001495      1.602071
  F      -0.000000     -0.001495     -1.602071
6
Coordinates from ORCA-job PF5_ts_scan E -840.354682288838
  P       0.000000     -0.000436     -0.000000
  F      -0.000000      1.567009      0.000000
  F       1.356487     -0.782922      0.000000
  F      -1.356487     -0.782922     -0.000000
  F      -0.000000     -0.000364      1.601839
  F      -0.000000     -0.000364     -1.601839
6
Coordinates from ORCA-job PF5_ts_scan E -840.354657835626
  P       0.000000     -0.001232     -0.000000
  F      -0.000000      1.570990      0.000000
  F       1.356487     -0.783719      0.000000
  F      -1.356487     -0.783718     -0.000000
  F      -0.000000     -0.001161      1.601839
  F      -0.000000     -0.001161     -1.601839
6
Coordinates from ORCA-job PF5_ts_scan E -840.354659587158
  P       0.000000     -0.001757     -0.000000
  F      -0.000000      1.570465      0.000000
  F       1.356281     -0.784419     -0.000000
  F      -1.356281     -0.784419      0.000000
  F      -0.000000      0.000065      1.601543
  F       0.000000      0.000065     -1.601543
6
Coordinates from ORCA-job PF5_ts_scan E -840.354660378587
  P      -0.000000     -0.001891     -0.000000
  F      -0.000000      1.570332      0.000000
  F       1.355764     -0.785126     -0.000000
  F      -1.355764     -0.785126     -0.000000
  F       0.000000      0.000906      1.601202
  F       0.000000      0.000906     -1.601202
6
Coordinates from ORCA-job PF5_ts_scan E -840.354610778839
  P      -0.000000     -0.002687     -0.000000
  F      -0.000000      1.574313      0.000000
  F       1.355764     -0.785923     -0.000000
  F      -1.355764     -0.785923     -0.000000
  F       0.000000      0.000109      1.601202
  F       0.000000      0.000109     -1.601202
6
Coordinates from ORCA-job PF5_ts_scan E -840.354611858198
  P       0.000000     -0.002990      0.000000
  F      -0.000000      1.574010      0.000000
  F       1.355510     -0.786564     -0.000000
  F      -1.355510     -0.786564     -0.000000
  F      -0.000000      0.001055      1.601013
  F      -0.000000      0.001055     -1.601013
